
OS:Version,
  {bd8e451a-ab57-4153-8263-a77f49276f44}, !- Handle
  3.1.0;                                  !- Version Identifier

OS:Site,
  {db9b14a4-0415-4dad-bb7a-2ad9db6e603a}, !- Handle
  Long Beach Daugherty Fld,               !- Name
  33.83,                                  !- Latitude {deg}
  -118.17,                                !- Longitude {deg}
  -8,                                     !- Time Zone {hr}
  8,                                      !- Elevation {m}
  ;                                       !- Terrain

OS:YearDescription,
  {7ab83636-0799-47f1-8867-de3a9e6bb221}, !- Handle
  ,                                       !- Calendar Year
  Sunday,                                 !- Day of Week for Start Day
  ;                                       !- Is Leap Year

OS:ClimateZones,
  {ae6db661-b3ba-465a-a419-ac30c7ae10b4}, !- Handle
  ,                                       !- Climate Zone Institution Name 1
  ,                                       !- Climate Zone Document Name 1
  ,                                       !- Climate Zone Document Year 1
  ,                                       !- Climate Zone Value 1
  CEC,                                    !- Climate Zone Institution Name 2
  California Climate Zone Descriptions,   !- Climate Zone Document Name 2
  1995,                                   !- Climate Zone Document Year 2
  ;                                       !- Climate Zone Value 2

OS:Building,
  {498cfa0c-b945-4e7d-bb02-d996bcdb75db}, !- Handle
  BESTEST Case 600FF,                     !- Name
  ,                                       !- Building Sector Type
  ,                                       !- North Axis {deg}
  ,                                       !- Nominal Floor to Floor Height {m}
  ,                                       !- Space Type Name
  {9d739c02-1061-42e1-ad79-ef5ea18d6f1d}, !- Default Construction Set Name
  ;                                       !- Default Schedule Set Name

OS:Facility,
  {1a5736e5-137f-458a-915f-e842ddae5112}; !- Handle

OS:SimulationControl,
  {342e76be-f36f-42de-a1cc-52639ce9a5c5}; !- Handle

OS:Sizing:Parameters,
  {4d51edf9-08c2-4f41-8181-e7af7db3c891}, !- Handle
  1.25,                                   !- Heating Sizing Factor
  1.15;                                   !- Cooling Sizing Factor

OS:Timestep,
  {56d8cf8c-0554-4a71-8902-4df74792093a}, !- Handle
  6;                                      !- Number of Timesteps per Hour

OS:ShadowCalculation,
  {85e5eac4-a998-4126-a4ad-658d9d6e4f9e}, !- Handle
  PolygonClipping,                        !- Shading Calculation Method
  ,                                       !- Shading Calculation Update Frequency Method
  20,                                     !- Shading Calculation Update Frequency
  15000,                                  !- Maximum Figures in Shadow Overlap Calculations
  ,                                       !- Polygon Clipping Algorithm
  512,                                    !- Pixel Counting Resolution
  ,                                       !- Sky Diffuse Modeling Algorithm
  No,                                     !- Output External Shading Calculation Results
  No,                                     !- Disable Self-Shading Within Shading Zone Groups
  No;                                     !- Disable Self-Shading From Shading Zone Groups to Other Zones

OS:HeatBalanceAlgorithm,
  {26d62edf-6d5c-4960-bd7f-70b8a85b3f95}, !- Handle
  ConductionTransferFunction,             !- Algorithm
  200;                                    !- Surface Temperature Upper Limit {C}

OS:RunPeriod,
  {526ed9b9-1246-4fa0-b789-307f1f4e2f3f}, !- Handle
  Run Period 1,                           !- Name
  1,                                      !- Begin Month
  1,                                      !- Begin Day of Month
  12,                                     !- End Month
  31,                                     !- End Day of Month
  ,                                       !- Use Weather File Holidays and Special Days
  ,                                       !- Use Weather File Daylight Saving Period
  ,                                       !- Apply Weekend Holiday Rule
  ,                                       !- Use Weather File Rain Indicators
  ,                                       !- Use Weather File Snow Indicators
  ;                                       !- Number of Times Runperiod to be Repeated

OS:LifeCycleCost:Parameters,
  {71a9ec48-ae8b-4933-aefe-c2137ecec76c}, !- Handle
  ,                                       !- Analysis Type
  ,                                       !- Discounting Convention
  ,                                       !- Inflation Approach
  ,                                       !- Real Discount Rate
  ,                                       !- Nominal Discount Rate
  ,                                       !- Inflation
  ,                                       !- Base Date Month
  ,                                       !- Base Date Year
  ,                                       !- Service Date Month
  ,                                       !- Service Date Year
  ;                                       !- Length of Study Period in Years

OS:SizingPeriod:DesignDay,
  {042a795c-fc19-49a7-aa26-f588fec1a0b2}, !- Handle
  Los Angeles Ann Clg .4% Condns Enth=>MDB, !- Name
  25.7,                                   !- Maximum Dry-Bulb Temperature {C}
  6,                                      !- Daily Dry-Bulb Temperature Range {deltaC}
  61900,                                  !- Humidity Indicating Conditions at Maximum Dry-Bulb
  100941,                                 !- Barometric Pressure {Pa}
  4.1,                                    !- Wind Speed {m/s}
  250,                                    !- Wind Direction {deg}
  0,                                      !- Sky Clearness
  0,                                      !- Rain Indicator
  0,                                      !- Snow Indicator
  21,                                     !- Day of Month
  8,                                      !- Month
  SummerDesignDay,                        !- Day Type
  0,                                      !- Daylight Saving Time Indicator
  Enthalpy,                               !- Humidity Indicating Type
  ,                                       !- Humidity Indicating Day Schedule Name
  DefaultMultipliers,                     !- Dry-Bulb Temperature Range Modifier Type
  ,                                       !- Dry-Bulb Temperature Range Modifier Schedule Name
  ASHRAETau,                              !- Solar Model Indicator
  ,                                       !- Beam Solar Day Schedule Name
  ,                                       !- Diffuse Solar Day Schedule Name
  0.44,                                   !- ASHRAE Taub {dimensionless}
  2.108;                                  !- ASHRAE Taud {dimensionless}

OS:SizingPeriod:DesignDay,
  {1ca735fe-5f36-4ae2-a1a3-09d7d7dfa16e}, !- Handle
  Los Angeles Ann Clg .4% Condns DP=>MDB, !- Name
  23.3,                                   !- Maximum Dry-Bulb Temperature {C}
  6,                                      !- Daily Dry-Bulb Temperature Range {deltaC}
  19.7,                                   !- Humidity Indicating Conditions at Maximum Dry-Bulb
  100941,                                 !- Barometric Pressure {Pa}
  4.1,                                    !- Wind Speed {m/s}
  250,                                    !- Wind Direction {deg}
  0,                                      !- Sky Clearness
  0,                                      !- Rain Indicator
  0,                                      !- Snow Indicator
  21,                                     !- Day of Month
  8,                                      !- Month
  SummerDesignDay,                        !- Day Type
  0,                                      !- Daylight Saving Time Indicator
  Dewpoint,                               !- Humidity Indicating Type
  ,                                       !- Humidity Indicating Day Schedule Name
  DefaultMultipliers,                     !- Dry-Bulb Temperature Range Modifier Type
  ,                                       !- Dry-Bulb Temperature Range Modifier Schedule Name
  ASHRAETau,                              !- Solar Model Indicator
  ,                                       !- Beam Solar Day Schedule Name
  ,                                       !- Diffuse Solar Day Schedule Name
  0.44,                                   !- ASHRAE Taub {dimensionless}
  2.108;                                  !- ASHRAE Taud {dimensionless}

OS:SizingPeriod:DesignDay,
  {bce9a12f-624a-4592-9be4-4b7e74f8dbc6}, !- Handle
  Los Angeles Ann Clg .4% Condns WB=>MDB, !- Name
  25.6,                                   !- Maximum Dry-Bulb Temperature {C}
  6,                                      !- Daily Dry-Bulb Temperature Range {deltaC}
  21.2,                                   !- Humidity Indicating Conditions at Maximum Dry-Bulb
  100941,                                 !- Barometric Pressure {Pa}
  4.1,                                    !- Wind Speed {m/s}
  250,                                    !- Wind Direction {deg}
  0,                                      !- Sky Clearness
  0,                                      !- Rain Indicator
  0,                                      !- Snow Indicator
  21,                                     !- Day of Month
  8,                                      !- Month
  SummerDesignDay,                        !- Day Type
  0,                                      !- Daylight Saving Time Indicator
  Wetbulb,                                !- Humidity Indicating Type
  ,                                       !- Humidity Indicating Day Schedule Name
  DefaultMultipliers,                     !- Dry-Bulb Temperature Range Modifier Type
  ,                                       !- Dry-Bulb Temperature Range Modifier Schedule Name
  ASHRAETau,                              !- Solar Model Indicator
  ,                                       !- Beam Solar Day Schedule Name
  ,                                       !- Diffuse Solar Day Schedule Name
  0.44,                                   !- ASHRAE Taub {dimensionless}
  2.108;                                  !- ASHRAE Taud {dimensionless}

OS:SizingPeriod:DesignDay,
  {f2abeb57-ae06-4b99-8eb7-d3abfc1b872e}, !- Handle
  Los Angeles Ann Clg .4% Condns DB=>MWB, !- Name
  28.7,                                   !- Maximum Dry-Bulb Temperature {C}
  6,                                      !- Daily Dry-Bulb Temperature Range {deltaC}
  17.9,                                   !- Humidity Indicating Conditions at Maximum Dry-Bulb
  100941,                                 !- Barometric Pressure {Pa}
  4.1,                                    !- Wind Speed {m/s}
  250,                                    !- Wind Direction {deg}
  0,                                      !- Sky Clearness
  0,                                      !- Rain Indicator
  0,                                      !- Snow Indicator
  21,                                     !- Day of Month
  8,                                      !- Month
  SummerDesignDay,                        !- Day Type
  0,                                      !- Daylight Saving Time Indicator
  Wetbulb,                                !- Humidity Indicating Type
  ,                                       !- Humidity Indicating Day Schedule Name
  DefaultMultipliers,                     !- Dry-Bulb Temperature Range Modifier Type
  ,                                       !- Dry-Bulb Temperature Range Modifier Schedule Name
  ASHRAETau,                              !- Solar Model Indicator
  ,                                       !- Beam Solar Day Schedule Name
  ,                                       !- Diffuse Solar Day Schedule Name
  0.44,                                   !- ASHRAE Taub {dimensionless}
  2.108;                                  !- ASHRAE Taud {dimensionless}

OS:SizingPeriod:DesignDay,
  {056cd6a1-7cd2-4b5f-8d7a-3550fb7b6630}, !- Handle
  Los Angeles Ann Htg Wind 99.6% Condns WS=>MCDB, !- Name
  13.6,                                   !- Maximum Dry-Bulb Temperature {C}
  0,                                      !- Daily Dry-Bulb Temperature Range {deltaC}
  13.6,                                   !- Humidity Indicating Conditions at Maximum Dry-Bulb
  100941,                                 !- Barometric Pressure {Pa}
  10.9,                                   !- Wind Speed {m/s}
  90,                                     !- Wind Direction {deg}
  0,                                      !- Sky Clearness
  0,                                      !- Rain Indicator
  0,                                      !- Snow Indicator
  21,                                     !- Day of Month
  1,                                      !- Month
  WinterDesignDay,                        !- Day Type
  0,                                      !- Daylight Saving Time Indicator
  Wetbulb,                                !- Humidity Indicating Type
  ,                                       !- Humidity Indicating Day Schedule Name
  DefaultMultipliers,                     !- Dry-Bulb Temperature Range Modifier Type
  ,                                       !- Dry-Bulb Temperature Range Modifier Schedule Name
  ASHRAEClearSky;                         !- Solar Model Indicator

OS:SizingPeriod:DesignDay,
  {f3810bc4-b3a1-4276-9fc6-a325486594bb}, !- Handle
  Los Angeles Ann Hum_n 99.6% Condns DP=>MCDB, !- Name
  15.2,                                   !- Maximum Dry-Bulb Temperature {C}
  0,                                      !- Daily Dry-Bulb Temperature Range {deltaC}
  -10.6,                                  !- Humidity Indicating Conditions at Maximum Dry-Bulb
  100941,                                 !- Barometric Pressure {Pa}
  2.4,                                    !- Wind Speed {m/s}
  90,                                     !- Wind Direction {deg}
  0,                                      !- Sky Clearness
  0,                                      !- Rain Indicator
  0,                                      !- Snow Indicator
  21,                                     !- Day of Month
  1,                                      !- Month
  WinterDesignDay,                        !- Day Type
  0,                                      !- Daylight Saving Time Indicator
  Dewpoint,                               !- Humidity Indicating Type
  ,                                       !- Humidity Indicating Day Schedule Name
  DefaultMultipliers,                     !- Dry-Bulb Temperature Range Modifier Type
  ,                                       !- Dry-Bulb Temperature Range Modifier Schedule Name
  ASHRAEClearSky;                         !- Solar Model Indicator

OS:SizingPeriod:DesignDay,
  {c442eec6-5bfd-496a-b179-4b0020bf58e2}, !- Handle
  Los Angeles Ann Htg 99.6% Condns DB,    !- Name
  6.9,                                    !- Maximum Dry-Bulb Temperature {C}
  0,                                      !- Daily Dry-Bulb Temperature Range {deltaC}
  6.9,                                    !- Humidity Indicating Conditions at Maximum Dry-Bulb
  100941,                                 !- Barometric Pressure {Pa}
  2.4,                                    !- Wind Speed {m/s}
  90,                                     !- Wind Direction {deg}
  0,                                      !- Sky Clearness
  0,                                      !- Rain Indicator
  0,                                      !- Snow Indicator
  21,                                     !- Day of Month
  1,                                      !- Month
  WinterDesignDay,                        !- Day Type
  0,                                      !- Daylight Saving Time Indicator
  Wetbulb,                                !- Humidity Indicating Type
  ,                                       !- Humidity Indicating Day Schedule Name
  DefaultMultipliers,                     !- Dry-Bulb Temperature Range Modifier Type
  ,                                       !- Dry-Bulb Temperature Range Modifier Schedule Name
  ASHRAEClearSky;                         !- Solar Model Indicator

OS:Material:NoMass,
  {7f7bb584-df8d-45cb-8081-780194123530}, !- Handle
  R25 Insulation,                         !- Name
  Rough,                                  !- Roughness
  25.075,                                 !- Thermal Resistance {m2-K/W}
  ,                                       !- Thermal Absorptance
  0.6,                                    !- Solar Absorptance
  0.6;                                    !- Visible Absorptance

OS:StandardsInformation:Material,
  {d587a0fb-4664-4d2f-b641-174078ff74b5}, !- Handle
  {7f7bb584-df8d-45cb-8081-780194123530}; !- Material Name

OS:Material:AirGap,
  {9ea81860-d00a-4b25-b06f-d2875bb246df}, !- Handle
  Air Gap,                                !- Name
  0.1588;                                 !- Thermal Resistance {m2-K/W}

OS:StandardsInformation:Material,
  {031da981-039d-450a-b17e-22fc2b78242c}, !- Handle
  {9ea81860-d00a-4b25-b06f-d2875bb246df}; !- Material Name

OS:Material,
  {4c62ef71-ac8d-41e7-bffa-363ee280782c}, !- Handle
  Plasterboard,                           !- Name
  Rough,                                  !- Roughness
  0.012,                                  !- Thickness {m}
  0.16,                                   !- Conductivity {W/m-K}
  950,                                    !- Density {kg/m3}
  840,                                    !- Specific Heat {J/kg-K}
  ,                                       !- Thermal Absorptance
  0.6,                                    !- Solar Absorptance
  0.6;                                    !- Visible Absorptance

OS:StandardsInformation:Material,
  {58ccecb2-9aa1-4b3a-846c-6dca63119d2d}, !- Handle
  {4c62ef71-ac8d-41e7-bffa-363ee280782c}; !- Material Name

OS:Material,
  {06b29104-720e-4498-9974-c465f8542b22}, !- Handle
  Fiberglass Quilt,                       !- Name
  Rough,                                  !- Roughness
  0.066,                                  !- Thickness {m}
  0.04,                                   !- Conductivity {W/m-K}
  12,                                     !- Density {kg/m3}
  840,                                    !- Specific Heat {J/kg-K}
  ,                                       !- Thermal Absorptance
  0.6,                                    !- Solar Absorptance
  0.6;                                    !- Visible Absorptance

OS:StandardsInformation:Material,
  {9d0ad883-64a1-4bba-984d-6386caa7ddb7}, !- Handle
  {06b29104-720e-4498-9974-c465f8542b22}; !- Material Name

OS:Material,
  {116af79f-65b1-404c-8810-5a9122c235a8}, !- Handle
  Roof Deck,                              !- Name
  Rough,                                  !- Roughness
  0.019,                                  !- Thickness {m}
  0.14,                                   !- Conductivity {W/m-K}
  530,                                    !- Density {kg/m3}
  900,                                    !- Specific Heat {J/kg-K}
  ,                                       !- Thermal Absorptance
  0.6,                                    !- Solar Absorptance
  0.6;                                    !- Visible Absorptance

OS:StandardsInformation:Material,
  {5a5f1850-581f-4626-b104-d63c35f38427}, !- Handle
  {116af79f-65b1-404c-8810-5a9122c235a8}; !- Material Name

OS:Material,
  {86e81ac3-75ba-4b26-8ac3-5d34bd1a3958}, !- Handle
  Timber Flooring,                        !- Name
  Rough,                                  !- Roughness
  0.025,                                  !- Thickness {m}
  0.14,                                   !- Conductivity {W/m-K}
  650,                                    !- Density {kg/m3}
  1200,                                   !- Specific Heat {J/kg-K}
  0.9,                                    !- Thermal Absorptance
  0.6,                                    !- Solar Absorptance
  0.6;                                    !- Visible Absorptance

OS:StandardsInformation:Material,
  {c6d819c9-ad2e-4c75-bb45-54ec0eec915d}, !- Handle
  {86e81ac3-75ba-4b26-8ac3-5d34bd1a3958}; !- Material Name

OS:Material,
  {597b457f-a3d1-44fc-8ed8-597cd419cab7}, !- Handle
  Door Shell,                             !- Name
  VerySmooth,                             !- Roughness
  0.0032,                                 !- Thickness {m}
  1.06,                                   !- Conductivity {W/m-K}
  2500,                                   !- Density {kg/m3}
  750,                                    !- Specific Heat {J/kg-K}
  ,                                       !- Thermal Absorptance
  0.6,                                    !- Solar Absorptance
  0.6;                                    !- Visible Absorptance

OS:StandardsInformation:Material,
  {7234a186-7c32-4506-b3b2-f0a999cec9aa}, !- Handle
  {597b457f-a3d1-44fc-8ed8-597cd419cab7}; !- Material Name

OS:Material,
  {3729257c-3540-4be2-975c-d4ccf3a7f904}, !- Handle
  Interior Wall,                          !- Name
  Rough,                                  !- Roughness
  0.2,                                    !- Thickness {m}
  0.51,                                   !- Conductivity {W/m-K}
  1400,                                   !- Density {kg/m3}
  1000,                                   !- Specific Heat {J/kg-K}
  ,                                       !- Thermal Absorptance
  0.6,                                    !- Solar Absorptance
  0.6;                                    !- Visible Absorptance

OS:StandardsInformation:Material,
  {10f6aabc-72fe-4580-8e20-e01471796826}, !- Handle
  {3729257c-3540-4be2-975c-d4ccf3a7f904}; !- Material Name

OS:WindowMaterial:Glazing,
  {456b1a48-dc6f-40a3-b17f-1e6a2005adf0}, !- Handle
  Glass,                                  !- Name
  SpectralAverage,                        !- Optical Data Type
  ,                                       !- Window Glass Spectral Data Set Name
  0.0032,                                 !- Thickness {m}
  0.862,                                  !- Solar Transmittance at Normal Incidence
  ,                                       !- Front Side Solar Reflectance at Normal Incidence
  0.078,                                  !- Back Side Solar Reflectance at Normal Incidence
  0.913,                                  !- Visible Transmittance at Normal Incidence
  0.082,                                  !- Front Side Visible Reflectance at Normal Incidence
  0.082,                                  !- Back Side Visible Reflectance at Normal Incidence
  ,                                       !- Infrared Transmittance at Normal Incidence
  ,                                       !- Front Side Infrared Hemispherical Emissivity
  ,                                       !- Back Side Infrared Hemispherical Emissivity
  1.06,                                   !- Conductivity {W/m-K}
  ,                                       !- Dirt Correction Factor for Solar and Visible Transmittance
  No;                                     !- Solar Diffusing

OS:StandardsInformation:Material,
  {2fdcda07-bafe-4b10-a594-9b63334408b6}, !- Handle
  {456b1a48-dc6f-40a3-b17f-1e6a2005adf0}; !- Material Name

OS:WindowMaterial:Gas,
  {7b436ba3-316c-4c0e-9c2c-bce516251ae0}, !- Handle
  Window Air Fill,                        !- Name
  Air,                                    !- Gas Type
  0.013;                                  !- Thickness {m}

OS:StandardsInformation:Material,
  {75bd7b76-9363-4472-9c41-9aeaa9c2ab04}, !- Handle
  {7b436ba3-316c-4c0e-9c2c-bce516251ae0}; !- Material Name

OS:Construction,
  {350248a3-a869-49bd-88a2-440a6fab1dd4}, !- Handle
  Interior Wall,                          !- Name
  {44c336af-bb40-4265-96d9-149a6b205cab}, !- Surface Rendering Name
  {3729257c-3540-4be2-975c-d4ccf3a7f904}; !- Layer 1

OS:StandardsInformation:Construction,
  {44f7fe38-2f8a-4534-8efa-356c24a430f4}, !- Handle
  {350248a3-a869-49bd-88a2-440a6fab1dd4}; !- Construction Name

OS:Construction,
  {5296e7c5-c68d-4ec7-997a-d1021b6f26e3}, !- Handle
  Double Pane Window,                     !- Name
  {f3905979-abfa-4f34-b0d9-ea3e317685a6}, !- Surface Rendering Name
  {456b1a48-dc6f-40a3-b17f-1e6a2005adf0}, !- Layer 1
  {7b436ba3-316c-4c0e-9c2c-bce516251ae0}, !- Layer 2
  {456b1a48-dc6f-40a3-b17f-1e6a2005adf0}; !- Layer 3

OS:StandardsInformation:Construction,
  {5f9df760-929d-415c-a921-cd4cc31f6c8b}, !- Handle
  {5296e7c5-c68d-4ec7-997a-d1021b6f26e3}; !- Construction Name

OS:Construction,
  {294f07ae-c661-4f48-91a3-1e83b5e6757b}, !- Handle
  Door,                                   !- Name
  {83d6579c-c7de-4e07-8c13-b0b77f92bb47}, !- Surface Rendering Name
  {597b457f-a3d1-44fc-8ed8-597cd419cab7}, !- Layer 1
  {9ea81860-d00a-4b25-b06f-d2875bb246df}, !- Layer 2
  {597b457f-a3d1-44fc-8ed8-597cd419cab7}; !- Layer 3

OS:StandardsInformation:Construction,
  {c194dd03-d476-480a-8c09-129fe3a1e388}, !- Handle
  {294f07ae-c661-4f48-91a3-1e83b5e6757b}; !- Construction Name

OS:Construction,
  {54b1786a-3f83-4597-81b0-b4b965022309}, !- Handle
  Floor,                                  !- Name
  {b32dbdbb-48b0-4790-934e-2c010bb04e88}, !- Surface Rendering Name
  {7f7bb584-df8d-45cb-8081-780194123530}, !- Layer 1
  {86e81ac3-75ba-4b26-8ac3-5d34bd1a3958}; !- Layer 2

OS:StandardsInformation:Construction,
  {6c826f29-d598-41c7-97cf-46ba98099cd4}, !- Handle
  {54b1786a-3f83-4597-81b0-b4b965022309}; !- Construction Name

OS:Construction,
  {c0b8569a-6ccd-4f84-a698-96069f90f4ac}, !- Handle
  Roof,                                   !- Name
  {de553030-956b-49c5-960c-61137bc85d95}, !- Surface Rendering Name
  {116af79f-65b1-404c-8810-5a9122c235a8}, !- Layer 1
  {06b29104-720e-4498-9974-c465f8542b22}, !- Layer 2
  {4c62ef71-ac8d-41e7-bffa-363ee280782c}; !- Layer 3

OS:StandardsInformation:Construction,
  {4c2f20ff-96ca-4620-921b-16d6bc97e2b3}, !- Handle
  {c0b8569a-6ccd-4f84-a698-96069f90f4ac}; !- Construction Name

OS:Construction,
  {33ddd3a3-a5bf-4bcb-8639-817b6b416072}, !- Handle
  Wall,                                   !- Name
  {1e3ec038-c5df-43a6-b172-2616498de50d}, !- Surface Rendering Name
  {06b29104-720e-4498-9974-c465f8542b22}, !- Layer 1
  {4c62ef71-ac8d-41e7-bffa-363ee280782c}; !- Layer 2

OS:StandardsInformation:Construction,
  {5a8d4ec5-f2ab-443d-9ccd-cab0d9bb513c}, !- Handle
  {33ddd3a3-a5bf-4bcb-8639-817b6b416072}; !- Construction Name

OS:Material,
  {029cbc3d-7c43-4695-b5a1-664467684198}, !- Handle
  G05 25mm wood,                          !- Name
  MediumSmooth,                           !- Roughness
  0.0254,                                 !- Thickness {m}
  0.15,                                   !- Conductivity {W/m-K}
  608,                                    !- Density {kg/m3}
  1630,                                   !- Specific Heat {J/kg-K}
  0.9,                                    !- Thermal Absorptance
  0.5,                                    !- Solar Absorptance
  0.5;                                    !- Visible Absorptance

OS:StandardsInformation:Material,
  {ec5641d6-d2c2-4f65-9487-b2903ac6aa6c}, !- Handle
  {029cbc3d-7c43-4695-b5a1-664467684198}; !- Material Name

OS:DefaultConstructionSet,
  {9d739c02-1061-42e1-ad79-ef5ea18d6f1d}, !- Handle
  My Construction Set,                    !- Name
  {1b8a84c0-3b3a-41f8-b569-38c1fed03f04}, !- Default Exterior Surface Constructions Name
  {c1d8c7d1-c5d4-455d-8525-3635a5c04ca9}, !- Default Interior Surface Constructions Name
  {2233b9af-0555-4fcb-a47d-9c95cb1c8a75}, !- Default Ground Contact Surface Constructions Name
  {521b63b3-84c8-4ad2-9eb9-a5e39a9a8646}, !- Default Exterior SubSurface Constructions Name
  {15a59aa2-323f-4c11-b0bc-0d3db44444e0}, !- Default Interior SubSurface Constructions Name
  ,                                       !- Interior Partition Construction Name
  ,                                       !- Space Shading Construction Name
  ,                                       !- Building Shading Construction Name
  ,                                       !- Site Shading Construction Name
  ;                                       !- Adiabatic Surface Construction Name

OS:DefaultSurfaceConstructions,
  {1b8a84c0-3b3a-41f8-b569-38c1fed03f04}, !- Handle
  Default Surface Constructions 1,        !- Name
  ,                                       !- Floor Construction Name
  {33ddd3a3-a5bf-4bcb-8639-817b6b416072}, !- Wall Construction Name
  {c0b8569a-6ccd-4f84-a698-96069f90f4ac}; !- Roof Ceiling Construction Name

OS:DefaultSurfaceConstructions,
  {c1d8c7d1-c5d4-455d-8525-3635a5c04ca9}, !- Handle
  Default Surface Constructions 2,        !- Name
  ,                                       !- Floor Construction Name
  {350248a3-a869-49bd-88a2-440a6fab1dd4}, !- Wall Construction Name
  ;                                       !- Roof Ceiling Construction Name

OS:DefaultSurfaceConstructions,
  {2233b9af-0555-4fcb-a47d-9c95cb1c8a75}, !- Handle
  Default Surface Constructions 3,        !- Name
  {54b1786a-3f83-4597-81b0-b4b965022309}, !- Floor Construction Name
  ,                                       !- Wall Construction Name
  ;                                       !- Roof Ceiling Construction Name

OS:DefaultSubSurfaceConstructions,
  {521b63b3-84c8-4ad2-9eb9-a5e39a9a8646}, !- Handle
  Default Sub Surface Constructions 1,    !- Name
  {5296e7c5-c68d-4ec7-997a-d1021b6f26e3}, !- Fixed Window Construction Name
  ,                                       !- Operable Window Construction Name
  {294f07ae-c661-4f48-91a3-1e83b5e6757b}, !- Door Construction Name
  ,                                       !- Glass Door Construction Name
  ,                                       !- Overhead Door Construction Name
  ,                                       !- Skylight Construction Name
  ,                                       !- Tubular Daylight Dome Construction Name