
OS:Version,
  {331975cc-434c-43ac-a398-c39188cc876f}, !- Handle
  3.1.0;                                  !- Version Identifier

OS:Schedule:Constant,
  {e186156b-7e5e-491f-827b-6f54d56b118e}, !- Handle
  Always On Discrete,                     !- Name
  {957816a7-3d6b-46bd-87c1-244de3deac18}, !- Schedule Type Limits Name
  1;                                      !- Value

OS:ScheduleTypeLimits,
  {957816a7-3d6b-46bd-87c1-244de3deac18}, !- Handle
  Always On Discrete Limits,              !- Name
  0,                                      !- Lower Limit Value
  1,                                      !- Upper Limit Value
  Discrete,                               !- Numeric Type
  Availability;                           !- Unit Type

OS:Rendering:Color,
  {d1e86687-6885-4070-81da-3a576f17ff5c}, !- Handle
  Rendering Color 1,                      !- Name
  230,                                    !- Rendering Red Value
  157,                                    !- Rendering Green Value
  120;                                    !- Rendering Blue Value

OS:Schedule:Ruleset,
  {8a273f29-9e00-4685-a53d-4e9734fa3bef}, ! Handle
  Office Bldg Light,                      ! Name
  {af9d9c36-2d5f-4871-8dda-ff179c7ff3db}, ! Schedule Type Limits Name
  {f4b4f1e1-6a43-44bd-a8f2-a74c513199be}, ! Default Day Schedule Name
  {c390a85c-d5e7-4c2d-8853-58583d31d4e3}, ! Summer Design Day Schedule Name
  {dd4723de-ece6-49f1-b48c-4ca52d8c8360}; ! Winter Design Day Schedule Name

OS:ScheduleTypeLimits,
  {af9d9c36-2d5f-4871-8dda-ff179c7ff3db}, ! Handle
  Fraction,                               ! Name
  0,                                      ! Lower Limit Value
  1,                                      ! Upper Limit Value
  CONTINUOUS;                             ! Numeric Type

OS:Schedule:Day,
  {f4b4f1e1-6a43-44bd-a8f2-a74c513199be}, ! Handle
  Office Bldg Light Default Schedule,     ! Name
  {af9d9c36-2d5f-4871-8dda-ff179c7ff3db}, ! Schedule Type Limits Name
  Yes,                                    ! Interpolate to Timestep
  4,                                      !- Hour 1
  0,                                      !- Minute 1
  0.05,                                   !- Value Until Time 1
  4,                                      !- Hour 2
  10,                                     !- Minute 2
  0.0541666666666667,                     !- Value Until Time 2
  4,                                      !- Hour 3
  20,                                     !- Minute 3
  0.0583333333333334,                     !- Value Until Time 3
  4,                                      !- Hour 4
  30,                                     !- Minute 4
  0.0625,                                 !- Value Until Time 4
  4,                                      !- Hour 5
  40,                                     !- Minute 5
  0.0666666666666667,                     !- Value Until Time 5
  4,                                      !- Hour 6
  50,                                     !- Minute 6
  0.0708333333333334,                     !- Value Until Time 6
  5,                                      !- Hour 7
  0,                                      !- Minute 7
  0.0750000000000001,                     !- Value Until Time 7
  5,                                      !- Hour 8
  10,                                     !- Minute 8
  0.0791666666666667,                     !- Value Until Time 8
  5,                                      !- Hour 9
  20,                                     !- Minute 9
  0.0833333333333334,                     !- Value Until Time 9
  5,                                      !- Hour 10
  30,                                     !- Minute 10
  0.0875000000000001,                     !- Value Until Time 10
  5,                                      !- Hour 11
  40,                                     !- Minute 11
  0.0916666666666668,                     !- Value Until Time 11
  5,                                      !- Hour 12
  50,                                     !- Minute 12
  0.0958333333333334,                     !- Value Until Time 12
  6,                                      !- Hour 13
  0,                                      !- Minute 13
  0.1,                                    !- Value Until Time 13
  6,                                      !- Hour 14
  30,                                     !- Minute 14
  0.1,                                    !- Value Until Time 14
  6,                                      !- Hour 15
  40,                                     !- Minute 15
  0.133333333333333,                      !- Value Until Time 15
  6,                                      !- Hour 16
  50,                                     !- Minute 16
  0.166666666666667,                      !- Value Until Time 16
  7,                                      !- Hour 17
  0,                                      !- Minute 17
  0.2,                                    !- Value Until Time 17
  7,                                      !- Hour 18
  10,                                     !- Minute 18
  0.233333333333334,                      !- Value Until Time 18
  7,                                      !- Hour 19
  20,                                     !- Minute 19
  0.266666666666667,                      !- Value Until Time 19
  7,                                      !- Hour 20
  30,                                     !- Minute 20
  0.3,                                    !- Value Until Time 20
  7,                                      !- Hour 21
  40,                                     !- Minute 21
  0.4,                                    !- Value Until Time 21
  7,                                      !- Hour 22
  50,                                     !- Minute 22
  0.5,                                    !- Value Until Time 22
  8,                                      !- Hour 23
  0,                                      !- Minute 23
  0.6,                                    !- Value Until Time 23
  8,                                      !- Hour 24
  9,                                      !- Minute 24
  0.7,                                    !- Value Until Time 24
  8,                                      !- Hour 25
  19,                                     !- Minute 25
  0.799999999999999,                      !- Value Until Time 25
  8,                                      !- Hour 26
  29,                                     !- Minute 26
  0.899999999999999,                      !- Value Until Time 26
  8,                                      !- Hour 27
  30,                                     !- Minute 27
  0.9,                                    !- Value Until Time 27
  16,                                     !- Hour 28
  30,                                     !- Minute 28
  0.9,                                    !- Value Until Time 28
  16,                                     !- Hour 29
  40,                                     !- Minute 29
  0.866666666666666,                      !- Value Until Time 29
  16,                                     !- Hour 30
  50,                                     !- Minute 30
  0.833333333333333,                      !- Value Until Time 30
  17,                                     !- Hour 31
  0,                                      !- Minute 31
  0.799999999999999,                      !- Value Until Time 31
  17,                                     !- Hour 32
  10,                                     !- Minute 32
  0.766666666666666,                      !- Value Until Time 32
  17,                                     !- Hour 33
  20,                                     !- Minute 33
  0.733333333333332,                      !- Value Until Time 33
  17,                                     !- Hour 34
  30,                                     !- Minute 34
  0.7,                                    !- Value Until Time 34
  17,                                     !- Hour 35
  40,                                     !- Minute 35
  0.666666666666666,                      !- Value Until Time 35
  17,                                     !- Hour 36
  50,                                     !- Minute 36
  0.633333333333333,                      !- Value Until Time 36
  18,                                     !- Hour 37
  0,                                      !- Minute 37
  0.599999999999999,                      !- Value Until Time 37
  18,                                     !- Hour 38
  10,                                     !- Minute 38
  0.566666666666666,                      !- Value Until Time 38
  18,                                     !- Hour 39
  20,                                     !- Minute 39
  0.533333333333332,                      !- Value Until Time 39
  18,                                     !- Hour 40
  30,                                     !- Minute 40
  0.5,                                    !- Value Until Time 40
  19,                                     !- Hour 41
  0,                                      !- Minute 41
  0.5,                                    !- Value Until Time 41
  19,                                     !- Hour 42
  10,                                     !- Minute 42
  0.483333333333333,                      !- Value Until Time 42
  19,                                     !- Hour 43
  20,                                     !- Minute 43
  0.466666666666666,                      !- Value Until Time 43
  19,                                     !- Hour 44
  30,                                     !- Minute 44
  0.45,                                   !- Value Until Time 44
  19,                                     !- Hour 45
  40,                                     !- Minute 45
  0.433333333333333,                      !- Value Until Time 45
  19,                                     !- Hour 46
  50,                                     !- Minute 46
  0.416666666666666,                      !- Value Until Time 46
  20,                                     !- Hour 47
  0,                                      !- Minute 47
  0.399999999999999,                      !- Value Until Time 47
  20,                                     !- Hour 48
  10,                                     !- Minute 48
  0.383333333333333,                      !- Value Until Time 48
  20,                                     !- Hour 49
  20,                                     !- Minute 49
  0.366666666666666,                      !- Value Until Time 49
  20,                                     !- Hour 50
  30,                                     !- Minute 50
  0.349999999999999,                      !- Value Until Time 50
  20,                                     !- Hour 51
  40,                                     !- Minute 51
  0.333333333333332,                      !- Value Until Time 51
  20,                                     !- Hour 52
  50,                                     !- Minute 52
  0.316666666666665,                      !- Value Until Time 52
  21,                                     !- Hour 53
  0,                                      !- Minute 53
  0.3,                                    !- Value Until Time 53
  21,                                     !- Hour 54
  30,                                     !- Minute 54
  0.3,                                    !- Value Until Time 54
  21,                                     !- Hour 55
  40,                                     !- Minute 55
  0.266666666666666,                      !- Value Until Time 55
  21,                                     !- Hour 56
  50,                                     !- Minute 56
  0.233333333333333,                      !- Value Until Time 56
  22,                                     !- Hour 57
  0,                                      !- Minute 57
  0.199999999999999,                      !- Value Until Time 57
  22,                                     !- Hour 58
  10,                                     !- Minute 58
  0.166666666666666,                      !- Value Until Time 58
  22,                                     !- Hour 59
  20,                                     !- Minute 59
  0.133333333333332,                      !- Value Until Time 59
  22,                                     !- Hour 60
  30,                                     !- Minute 60
  0.1,                                    !- Value Until Time 60
  22,                                     !- Hour 61
  40,                                     !- Minute 61
  0.0916666666666666,                     !- Value Until Time 61
  22,                                     !- Hour 62
  50,                                     !- Minute 62
  0.0833333333333332,                     !- Value Until Time 62
  23,                                     !- Hour 63
  0,                                      !- Minute 63
  0.0749999999999998,                     !- Value Until Time 63
  23,                                     !- Hour 64
  10,                                     !- Minute 64
  0.0666666666666664,                     !- Value Until Time 64
  23,                                     !- Hour 65
  20,                                     !- Minute 65
  0.058333333333333,                      !- Value Until Time 65
  23,                                     !- Hour 66
  30,                                     !- Minute 66
  0.05,                                   !- Value Until Time 66
  24,                                     !- Hour 67
  0,                                      !- Minute 67
  0.05;                                   !- Value Until Time 67

OS:Schedule:Day,
  {c390a85c-d5e7-4c2d-8853-58583d31d4e3}, ! Handle
  Office Bldg Light Summer Design Day,    ! Name
  {af9d9c36-2d5f-4871-8dda-ff179c7ff3db}, ! Schedule Type Limits Name
  ,                                       ! Interpolate to Timestep
  24,                                     ! Hour 1
  0,                                      ! Minute 1
  1;                                      ! Value Until Time 1

OS:Schedule:Day,
  {dd4723de-ece6-49f1-b48c-4ca52d8c8360}, ! Handle
  Office Bldg Light Winter Design Day,    ! Name
  {af9d9c36-2d5f-4871-8dda-ff179c7ff3db}, ! Schedule Type Limits Name
  ,                                       ! Interpolate to Timestep
  24,                                     ! Hour 1
  0,                                      ! Minute 1
  0;                                      ! Value Until Time 1

OS:Schedule:Rule,
  {101bb6fc-d0fc-4dd5-b953-30be7362193e}, !- Handle
  Office Bldg Light Rule 1,               !- Name
  {8a273f29-9e00-4685-a53d-4e9734fa3bef}, !- Schedule Ruleset Name
  0,                                      !- Rule Order
  {cab9d70e-56fd-4a11-b93a-30526ba080c7}, !- Day Schedule Name
  Yes,                                    !- Apply Sunday
  No,                                     !- Apply Monday
  No,                                     !- Apply Tuesday
  No,                                     !- Apply Wednesday
  No,                                     !- Apply Thursday
  No,                                     !- Apply Friday
  No,                                     !- Apply Saturday
  DateRange,                              !- Date Specification Type
  1,                                      !- Start Month
  1,                                      !- Start Day
  12,                                     !- End Month
  31;                                     !- End Day

OS:Schedule:Day,
  {cab9d70e-56fd-4a11-b93a-30526ba080c7}, ! Handle
  Office Bldg Light Rule 1 Day Schedule,  ! Name
  {af9d9c36-2d5f-4871-8dda-ff179c7ff3db}, ! Schedule Type Limits Name
  Yes,                                    ! Interpolate to Timestep
  24,                                     !- Hour 1
  0,                                      !- Minute 1
  0.05;                                   !- Value Until Time 1

OS:Schedule:Rule,
  {e5799452-8d36-4739-a94b-184f22c15de0}, !- Handle
  Office Bldg Light Rule 2,               !- Name
  {8a273f29-9e00-4685-a53d-4e9734fa3bef}, !- Schedule Ruleset Name
  1,                                      !- Rule Order
  {fd34a36a-f6bf-4a3e-b174-248c7bf8388a}, !- Day Schedule Name
  No,                                     !- Apply Sunday
  No,                                     !- Apply Monday
  No,                                     !- Apply Tuesday
  No,                                     !- Apply Wednesday
  No,                                     !- Apply Thursday
  No,                                     !- Apply Friday
  Yes,                                    !- Apply Saturday
  DateRange,                              !- Date Specification Type
  1,                                      !- Start Month
  1,                                      !- Start Day
  12,                                     !- End Month
  31;                                     !- End Day

OS:Schedule:Day,
  {fd34a36a-f6bf-4a3e-b174-248c7bf8388a}, ! Handle
  Office Bldg Light Rule 2 Day Schedule,  ! Name
  {af9d9c36-2d5f-4871-8dda-ff179c7ff3db}, ! Schedule Type Limits Name
  Yes,                                    ! Interpolate to Timestep
  7,                                      !- Hour 1
  0,                                      !- Minute 1
  0.05,                                   !- Value Until Time 1
  7,                                      !- Hour 2
  10,                                     !- Minute 2
  0.0541666666666667,                     !- Value Until Time 2
  7,                                      !- Hour 3
  20,                                     !- Minute 3
  0.0583333333333334,                     !- Value Until Time 3
  7,                                      !- Hour 4
  30,                                     !- Minute 4
  0.0625,                                 !- Value Until Time 4
  7,                                      !- Hour 5
  40,                                     !- Minute 5
  0.0666666666666667,                     !- Value Until Time 5
  7,                                      !- Hour 6
  50,                                     !- Minute 6
  0.0708333333333334,                     !- Value Until Time 6
  8,                                      !- Hour 7
  0,                                      !- Minute 7
  0.0750000000000001,                     !- Value Until Time 7
  8,                                      !- Hour 8
  10,                                     !- Minute 8
  0.0791666666666667,                     !- Value Until Time 8
  8,                                      !- Hour 9
  20,                                     !- Minute 9
  0.0833333333333334,                     !- Value Until Time 9
  8,                                      !- Hour 10
  30,                                     !- Minute 10
  0.0875,                                 !- Value Until Time 10
  8,                                      !- Hour 11
  39,                                     !- Minute 11
  0.0916666666666666,                     !- Value Until Time 11
  8,                                      !- Hour 12
  49,                                     !- Minute 12
  0.0958333333333333,                     !- Value Until Time 12
  8,                                      !- Hour 13
  59,                                     !- Minute 13
  0.1,                                    !- Value Until Time 13
  9,                                      !- Hour 14
  0,                                      !- Minute 14
  0.1,                                    !- Value Until Time 14
  9,                                      !- Hour 15
  9,                                      !- Minute 15
  0.133333333333333,                      !- Value Until Time 15
  9,                                      !- Hour 16
  19,                                     !- Minute 16
  0.166666666666666,                      !- Value Until Time 16
  9,                                      !- Hour 17
  29,                                     !- Minute 17
  0.2,                                    !- Value Until Time 17
  9,                                      !- Hour 18
  39,                                     !- Minute 18
  0.233333333333333,                      !- Value Until Time 18
  9,                                      !- Hour 19
  49,                                     !- Minute 19
  0.266666666666666,                      !- Value Until Time 19
  9,                                      !- Hour 20
  59,                                     !- Minute 20
  0.299999999999999,                      !- Value Until Time 20
  10,                                     !- Hour 21
  9,                                      !- Minute 21
  0.333333333333332,                      !- Value Until Time 21
  10,                                     !- Hour 22
  19,                                     !- Minute 22
  0.366666666666666,                      !- Value Until Time 22
  10,                                     !- Hour 23
  29,                                     !- Minute 23
  0.399999999999999,                      !- Value Until Time 23
  10,                                     !- Hour 24
  39,                                     !- Minute 24
  0.433333333333332,                      !- Value Until Time 24
  10,                                     !- Hour 25
  49,                                     !- Minute 25
  0.466666666666665,                      !- Value Until Time 25
  10,                                     !- Hour 26
  59,                                     !- Minute 26
  0.499999999999999,                      !- Value Until Time 26
  11,                                     !- Hour 27
  0,                                      !- Minute 27
  0.5,                                    !- Value Until Time 27
  14,                                     !- Hour 28
  30,                                     !- Minute 28
  0.5,                                    !- Value Until Time 28
  14,                                     !- Hour 29
  39,                                     !- Minute 29
  0.480555555555556,                      !- Value Until Time 29
  14,                                     !- Hour 30
  49,                                     !- Minute 30
  0.461111111111111,                      !- Value Until Time 30
  14,                                     !- Hour 31
  59,                                     !- Minute 31
  0.441666666666667,                      !- Value Until Time 31
  15,                                     !- Hour 32
  9,                                      !- Minute 32
  0.422222222222223,                      !- Value Until Time 32
  15,                                     !- Hour 33
  19,                                     !- Minute 33
  0.402777777777778,                      !- Value Until Time 33
  15,                                     !- Hour 34
  29,                                     !- Minute 34
  0.383333333333334,                      !- Value Until Time 34
  15,                                     !- Hour 35
  39,                                     !- Minute 35
  0.363888888888889,                      !- Value Until Time 35
  15,                                     !- Hour 36
  49,                                     !- Minute 36
  0.344444444444445,                      !- Value Until Time 36
  15,                                     !- Hour 37
  59,                                     !- Minute 37
  0.325000000000001,                      !- Value Until Time 37
  16,                                     !- Hour 38
  9,                                      !- Minute 38
  0.305555555555556,                      !- Value Until Time 38
  16,                                     !- Hour 39
  19,                                     !- Minute 39
  0.286111111111112,                      !- Value Until Time 39
  16,                                     !- Hour 40
  29,                                     !- Minute 40
  0.266666666666667,                      !- Value Until Time 40
  16,                                     !- Hour 41
  39,                                     !- Minute 41
  0.247222222222223,                      !- Value Until Time 41
  16,                                     !- Hour 42
  49,                                     !- Minute 42
  0.227777777777778,                      !- Value Until Time 42
  17,                                     !- Hour 43
  0,                                      !- Minute 43
  0.208333333333333,                      !- Value Until Time 43
  17,                                     !- Hour 44
  10,                                     !- Minute 44
  0.188888888888889,                      !- Value Until Time 44
  17,                                     !- Hour 45
  20,                                     !- Minute 45
  0.169444444444444,                      !- Value Until Time 45
  17,                                     !- Hour 46
  30,                                     !- Minute 46
  0.15,                                   !- Value Until Time 46
  17,                                     !- Hour 47
  40,                                     !- Minute 47
  0.144444444444444,                      !- Value Until Time 47
  17,                                     !- Hour 48
  50,                                     !- Minute 48
  0.138888888888889,                      !- Value Until Time 48
  18,                                     !- Hour 49
  0,                                      !- Minute 49
  0.133333333333333,                      !- Value Until Time 49
  18,                                     !- Hour 50
  10,                                     !- Minute 50
  0.127777777777778,                      !- Value Until Time 50
  18,                                     !- Hour 51
  20,                                     !- Minute 51
  0.122222222222222,                      !- Value Until Time 51
  18,                                     !- Hour 52
  30,                                     !- Minute 52
  0.116666666666666,                      !- Value Until Time 52
  18,                                     !- Hour 53
  40,                                     !- Minute 53
  0.111111111111111,                      !- Value Until Time 53
  18,                                     !- Hour 54
  50,                                     !- Minute 54
  0.105555555555555,                      !- Value Until Time 54
  19,                                     !- Hour 55
  0,                                      !- Minute 55
  0.0999999999999996,                     !- Value Until Time 55
  19,                                     !- Hour 56
  10,                                     !- Minute 56
  0.094444444444444,                      !- Value Until Time 56
  19,                                     !- Hour 57
  20,                                     !- Minute 57
  0.0888888888888884,                     !- Value Until Time 57
  19,                                     !- Hour 58
  30,                                     !- Minute 58
  0.0833333333333329,                     !- Value Until Time 58
  19,                                     !- Hour 59
  40,                                     !- Minute 59
  0.0777777777777773,                     !- Value Until Time 59
  19,                                     !- Hour 60
  50,                                     !- Minute 60
  0.0722222222222217,                     !- Value Until Time 60
  20,                                     !- Hour 61
  0,                                      !- Minute 61
  0.0666666666666661,                     !- Value Until Time 61
  20,                                     !- Hour 62
  10,                                     !- Minute 62
  0.0611111111111105,                     !- Value Until Time 62
  20,                                     !- Hour 63
  20,                                     !- Minute 63
  0.0555555555555549,                     !- Value Until Time 63
  20,                                     !- Hour 64
  30,                                     !- Minute 64
  0.05,                                   !- Value Until Time 64
  24,                                     !- Hour 65
  0,                                      !- Minute 65
  0.05;                                   !- Value Until Time 65

OS:DesignSpecification:OutdoorAir,
  {67f2822d-9200-410d-bad4-ca1adb4cbb77}, !- Handle
  189.1-2009 - Office - BreakRoom - CZ1-3 Ventilation, !- Name
  Sum,                                    !- Outdoor Air Method
  0.007079211648,                         !- Outdoor Air Flow per Person {m3/s-person}
  ,                                       !- Outdoor Air Flow per Floor Area {m3/s-m2}
  ,                                       !- Outdoor Air Flow Rate {m3/s}
  ,                                       !- Outdoor Air Flow Air Changes per Hour {1/hr}
  ;                                       !- Outdoor Air Flow Rate Fraction Schedule Name

OS:Schedule:Ruleset,
  {2eaafb36-c8d9-471a-8f30-6e2188bd0fdb}, ! Handle
  Office Activity,                        ! Name
  {65bf6a03-1758-4903-8383-db583a09d8f8}, ! Schedule Type Limits Name
  {3327af75-d065-4569-8f41-90aaaadb46d9}, ! Default Day Schedule Name
  {82481ab0-fa29-4f90-b6c0-269200534d1a}, ! Summer Design Day Schedule Name
  {ce7a9c35-95ca-4940-ae5d-8bb25d884027}; ! Winter Design Day Schedule Name

OS:ScheduleTypeLimits,
  {65bf6a03-1758-4903-8383-db583a09d8f8}, !- Handle
  ActivityLevel,                          !- Name
  0,                                      !- Lower Limit Value
  ,                                       !- Upper Limit Value
  Continuous,                             !- Numeric Type
  ActivityLevel;                          !- Unit Type

OS:Schedule:Day,
  {3327af75-d065-4569-8f41-90aaaadb46d9}, ! Handle
  Office Activity Default Schedule,       ! Name
  {65bf6a03-1758-4903-8383-db583a09d8f8}, ! Schedule Type Limits Name