
OS:Version,
  {e5e741a6-ddf4-42ab-a833-bac828820076}, !- Handle
  2.7.0;                                  !- Version Identifier

OS:Schedule:Constant,
  {5b31371e-075a-43e5-b7df-93e6c5dbb53e}, !- Handle
  Always On Discrete,                     !- Name
  {a19aa1e9-5e4d-426d-ac44-c9b9e6fa6e18}, !- Schedule Type Limits Name
  1;                                      !- Value

OS:ScheduleTypeLimits,
  {a19aa1e9-5e4d-426d-ac44-c9b9e6fa6e18}, !- Handle
  Always On Discrete Limits,              !- Name
  0,                                      !- Lower Limit Value
  1,                                      !- Upper Limit Value
  Discrete,                               !- Numeric Type
  Availability;                           !- Unit Type

OS:Construction,
  {76db9171-03b6-41e7-a45e-2de62e14f86c}, ! Handle
  000 ExtSlabCarpet 4in ClimateZone 1-8,  ! Name
  {8346f012-6b5d-4b93-8393-7df99caede61}, ! Surface Rendering Name
  {340682d3-fa23-42a3-84c2-f1b90ba10569}, ! Layer 1
  {4b387cb3-3b9d-420b-93c3-f73961003e38}; ! Layer 2

OS:Construction,
  {7b149951-51f9-4749-baac-00ad64b70d18}, ! Handle
  000 Exterior Door,                      ! Name
  {1d3d209a-5bbd-4ab5-8301-9cf44208f93c}, ! Surface Rendering Name
  {d656bb33-c65d-4ed3-876b-ea436d48e2f4}, ! Layer 1
  {d484a6d2-f81c-4811-8152-397327621470}; ! Layer 2

OS:Construction,
  {f11069f4-0474-44b0-b506-bbc4dab261d1}, ! Handle
  000 Exterior Window,                    ! Name
  {3b97d8ed-022b-4615-89aa-0363397aae80}, ! Surface Rendering Name
  {a0b4aec3-6850-4d4e-ab71-939256a6feef}, ! Layer 1
  {3d19d2fc-f05c-48bf-bfd3-2fa33b074414}, ! Layer 2
  {a0b4aec3-6850-4d4e-ab71-939256a6feef}; ! Layer 3

OS:Construction,
  {abac3a72-9641-497d-a59c-b33d2c479b73}, ! Handle
  000 Interior Ceiling,                   ! Name
  {3782cc49-4b33-44cb-aa32-dac604bd2b98}, ! Surface Rendering Name
  {4868b20f-c8cf-4fbb-9f17-5a915fb20760}, ! Layer 1
  {a0e88762-b66d-4033-bab8-a0a894b35c81}, ! Layer 2
  {e09b8308-cfbf-42ed-8164-900ec0911ef3}; ! Layer 3

OS:Construction,
  {c3835d8b-8240-4d9b-bbeb-b3069e25ae3b}, ! Handle
  000 Interior Door,                      ! Name
  {bf57712a-7563-4c48-93a4-6b8f894d5c8e}, ! Surface Rendering Name
  {eb8c255e-5fed-4488-90a4-d75e66ae9ac6}; ! Layer 1

OS:Construction,
  {44ff3b49-9440-4330-b60c-c350f4db01be}, ! Handle
  000 Interior Floor,                     ! Name
  {bda01685-f920-4284-9e4b-f859eb0c1cfc}, ! Surface Rendering Name
  {e09b8308-cfbf-42ed-8164-900ec0911ef3}, ! Layer 1
  {a0e88762-b66d-4033-bab8-a0a894b35c81}, ! Layer 2
  {4868b20f-c8cf-4fbb-9f17-5a915fb20760}; ! Layer 3

OS:Construction,
  {752112b0-37fe-4a2f-ae7c-5b83e2f18d43}, ! Handle
  000 Interior Partition,                 ! Name
  {db356a5e-b978-47b0-94df-3a21cebda84f}, ! Surface Rendering Name
  {eb8c255e-5fed-4488-90a4-d75e66ae9ac6}; ! Layer 1

OS:Construction,
  {38d66d23-0ae3-4202-a09c-445240a91cf2}, ! Handle
  000 Interior Wall,                      ! Name
  {6aa0f551-d028-4958-a014-8381554a4daa}, ! Surface Rendering Name
  {b9780731-b0c4-4ebe-a967-4b849e2ee99c}, ! Layer 1
  {25ace1c7-e946-4fd0-bf24-54a1c7d004d6}, ! Layer 2
  {b9780731-b0c4-4ebe-a967-4b849e2ee99c}; ! Layer 3

OS:Construction,
  {d0af3d80-effa-4e66-a234-c16296270103}, ! Handle
  000 Interior Window,                    ! Name
  {6ae3d9a7-3ce1-40df-9392-aa2e449a5d47}, ! Surface Rendering Name
  {a0b4aec3-6850-4d4e-ab71-939256a6feef}; ! Layer 1

OS:Construction,
  {93f87511-34ea-49f6-960f-3acfc6e2cec7}, ! Handle
  ASHRAE 90.1-2004 ExtRoof IEAD ClimateZone 5-6, ! Name
  {92ed3aa7-1c39-416c-afb5-59f062dd40b7}, ! Surface Rendering Name
  {b76ca5ed-32de-4aae-8f80-f521ca8dfb35}, ! Layer 1
  {68fb6637-2c8a-48d5-98b7-ddf9ade69e9d}, ! Layer 2
  {e7193b1b-28da-4cc7-b7d1-0cb0e674319f}; ! Layer 3

OS:Construction,
  {b44cae53-f90c-465b-8cba-085b68e9a01a}, ! Handle
  ASHRAE 90.1-2004 ExtWall SteelFrame ClimateZone alt-res 4-6, ! Name
  {b5c45b30-ea27-495e-9bb4-c8073638c7fc}, ! Surface Rendering Name
  {181e8f70-ef0d-4ce2-80c2-2dfcd154e3e1}, ! Layer 1
  {f2965ebe-dc7c-41a7-a1cf-05a0a6a4ac50}, ! Layer 2
  {a5bdab58-5720-44e2-ae63-0e09648e8e8c}; ! Layer 3

OS:Construction,
  {9c36f6e1-3c01-4429-bfde-9623a40d1c77}, ! Handle
  ASHRAE 90.1-2004 ExtWindow ClimateZone alt-res 4-6, ! Name
  {67e37ea2-a63b-4387-a9f4-fb61ecd56aa4}, ! Surface Rendering Name
  {b87e00c5-da14-4d2f-b647-adbaeb42cc9c}; ! Layer 1

OS:DefaultConstructionSet,
  {6b8d9294-f8e5-4dba-98e3-8a12a5521854}, ! Handle
  ASHRAE 90.1-2004 ClimateZone 5-6 (m apt) ConstSet, ! Name
  {18819470-e3aa-4f92-a218-bd027d74b4ab}, ! Default Exterior Surface Constructions Name
  {08d59271-f6a8-4915-b503-10e66b6c8c68}, ! Default Interior Surface Constructions Name
  {616e3d9c-5fca-4d24-9909-a03b0c3ead45}, ! Default Ground Contact Surface Constructions Name
  {2768b729-de8a-4098-b759-89d72cd31b9d}, ! Default Exterior SubSurface Constructions Name
  {6a45accd-3b18-4da8-a929-0e448b9a2499}, ! Default Interior SubSurface Constructions Name
  {752112b0-37fe-4a2f-ae7c-5b83e2f18d43}, ! Interior Partition Construction Name
  ,                                       ! Space Shading Construction Name
  ,                                       ! Building Shading Construction Name
  ;                                       ! Site Shading Construction Name

OS:DefaultScheduleSet,
  {97176665-e707-4250-8f8d-0d6d92c04843}, ! Handle
  Mid-riseApartment Apartment Schedules,  ! Name
  ,                                       ! Hours of Operation Schedule Name
  {3f84df64-d46b-465d-863d-b8dcb8d6aaa4}, ! Number of People Schedule Name
  {1276a9f9-3fc6-4e14-bf02-857fe4474eeb}, ! People Activity Level Schedule Name
  {76ad38fe-293d-4cde-9881-0563f38629f9}, ! Lighting Schedule Name
  {b101496a-bb38-49d2-8369-d1b8ff7708f4}, ! Electric Equipment Schedule Name
  ,                                       ! Gas Equipment Schedule Name
  ,                                       ! Hot Water Equipment Schedule Name
  {4334ce5b-9f4d-4665-ab65-4aca0447565a}, ! Infiltration Schedule Name
  ,                                       ! Steam Equipment Schedule Name
  ;                                       ! Other Equipment Schedule Name

OS:DefaultScheduleSet,
  {11f49381-85a2-40db-8fa6-915cf9765161}, ! Handle
  Attic Schedules,                        ! Name
  ,                                       ! Hours of Operation Schedule Name
  ,                                       ! Number of People Schedule Name
  ,                                       ! People Activity Level Schedule Name
  ,                                       ! Lighting Schedule Name
  ,                                       ! Electric Equipment Schedule Name
  ,                                       ! Gas Equipment Schedule Name
  ,                                       ! Hot Water Equipment Schedule Name
  {c0805299-19fc-4e7f-872e-0a3c4849279e}, ! Infiltration Schedule Name
  ,                                       ! Steam Equipment Schedule Name
  ;                                       ! Other Equipment Schedule Name

OS:DefaultSubSurfaceConstructions,
  {6a45accd-3b18-4da8-a929-0e448b9a2499}, ! Handle
  000 Interior DefSubCons,                ! Name
  {d0af3d80-effa-4e66-a234-c16296270103}, ! Fixed Window Construction Name
  {d0af3d80-effa-4e66-a234-c16296270103}, ! Operable Window Construction Name
  {c3835d8b-8240-4d9b-bbeb-b3069e25ae3b}, ! Door Construction Name
  {f11069f4-0474-44b0-b506-bbc4dab261d1}, ! Glass Door Construction Name
  ,                                       ! Overhead Door Construction Name
  {f11069f4-0474-44b0-b506-bbc4dab261d1}, ! Skylight Construction Name
  {d0af3d80-effa-4e66-a234-c16296270103}, ! Tubular Daylight Dome Construction Name
  {d0af3d80-effa-4e66-a234-c16296270103}; ! Tubular Daylight Diffuser Construction Name

OS:DefaultSubSurfaceConstructions,
  {2768b729-de8a-4098-b759-89d72cd31b9d}, ! Handle
  ASHRAE 90.1-2004 ClimateZone 5-6 (m apt) Exterior DefSubCons, ! Name
  {9c36f6e1-3c01-4429-bfde-9623a40d1c77}, ! Fixed Window Construction Name
  {9c36f6e1-3c01-4429-bfde-9623a40d1c77}, ! Operable Window Construction Name
  {7b149951-51f9-4749-baac-00ad64b70d18}, ! Door Construction Name
  {f11069f4-0474-44b0-b506-bbc4dab261d1}, ! Glass Door Construction Name
  ,                                       ! Overhead Door Construction Name
  {f11069f4-0474-44b0-b506-bbc4dab261d1}, ! Skylight Construction Name
  {d0af3d80-effa-4e66-a234-c16296270103}, ! Tubular Daylight Dome Construction Name
  {d0af3d80-effa-4e66-a234-c16296270103}; ! Tubular Daylight Diffuser Construction Name

OS:DefaultSurfaceConstructions,
  {616e3d9c-5fca-4d24-9909-a03b0c3ead45}, ! Handle
  000 Ground DefSurfCons,                 ! Name
  {76db9171-03b6-41e7-a45e-2de62e14f86c}, ! Floor Construction Name
  {76db9171-03b6-41e7-a45e-2de62e14f86c}, ! Wall Construction Name
  {76db9171-03b6-41e7-a45e-2de62e14f86c}; ! Roof Ceiling Construction Name

OS:DefaultSurfaceConstructions,
  {08d59271-f6a8-4915-b503-10e66b6c8c68}, ! Handle
  000 Interior DefSurfCons,               ! Name
  {44ff3b49-9440-4330-b60c-c350f4db01be}, ! Floor Construction Name
  {38d66d23-0ae3-4202-a09c-445240a91cf2}, ! Wall Construction Name
  {abac3a72-9641-497d-a59c-b33d2c479b73}; ! Roof Ceiling Construction Name

OS:DefaultSurfaceConstructions,
  {18819470-e3aa-4f92-a218-bd027d74b4ab}, ! Handle
  ASHRAE 90.1-2004 ClimateZone 5-6 (m apt) Exterior DefSurfCons, ! Name
  {76db9171-03b6-41e7-a45e-2de62e14f86c}, ! Floor Construction Name
  {b44cae53-f90c-465b-8cba-085b68e9a01a}, ! Wall Construction Name
  {93f87511-34ea-49f6-960f-3acfc6e2cec7}; ! Roof Ceiling Construction Name

OS:DesignSpecification:OutdoorAir,
  {fffb6dfb-4665-4958-b893-4f78b7cb7715}, ! Handle
  Mid-riseApartment Apartment Outdoor Air, ! Name
  Sum,                                    ! Outdoor Air Method
  0.0,                                    ! Outdoor Air Flow per Person
  0.0,                                    ! Outdoor Air Flow per Floor Area
  0,                                      ! Outdoor Air Flow Rate
  0,                                      ! Outdoor Air Flow Air Changes per Hour
  ;                                       ! Outdoor Air Flow Rate Fraction Schedule Name

OS:DesignSpecification:OutdoorAir,
  {877caa22-b973-4c58-a8b1-7e6eb9e8d550}, ! Handle
  Mid-riseApartment Corridor Outdoor Air, ! Name
  Sum,                                    ! Outdoor Air Method
  0.0,                                    ! Outdoor Air Flow per Person
  0.000254,                               ! Outdoor Air Flow per Floor Area
  0,                                      ! Outdoor Air Flow Rate
  0,                                      ! Outdoor Air Flow Air Changes per Hour
  ;                                       ! Outdoor Air Flow Rate Fraction Schedule Name

OS:DesignSpecification:OutdoorAir,
  {1bfd416b-0c4d-4a58-8890-73b1160bb05d}, ! Handle
  Mid-riseApartment Office Outdoor Air,   ! Name
  Sum,                                    ! Outdoor Air Method
  0.01076452,                             ! Outdoor Air Flow per Person
  0.0,                                    ! Outdoor Air Flow per Floor Area
  0,                                      ! Outdoor Air Flow Rate
  0,                                      ! Outdoor Air Flow Air Changes per Hour
  ;                                       ! Outdoor Air Flow Rate Fraction Schedule Name

OS:ElectricEquipment,
  {8816ac16-032f-46a9-a36e-4412ef0e1817}, ! Handle
  ASHRAE 90.1-2004 Mid-riseApartment Apartment ElecInst, ! Name
  {79e2f3bd-4057-43e5-827a-072e534070cd}, ! Electric Equipment Definition Name
  {61494be9-25ef-40d9-82bd-b74a2efaeb76}, ! Space or SpaceType Name
  ,                                       ! Schedule Name
  ,                                       ! Multiplier
  ElectricEquipment;                      ! End-Use Subcategory

OS:ElectricEquipment:Definition,
  {79e2f3bd-4057-43e5-827a-072e534070cd}, ! Handle
  ASHRAE 90.1-2004 Mid-riseApartment Apartment ElecDef, ! Name
  Watts/Area,                             ! Design Level Calculation Method
  0,                                      ! Design Level
  5.381955208354861,                      ! Watts per Space Floor Area
  ;                                       ! Watts per Person

OS:Facility,
  {58a41e7d-e03d-494a-9b8d-5142845536e7}; ! Handle

OS:Lights,
  {59190f7a-a4f3-4abd-bb88-8a3cbdbb5896}, ! Handle
  ASHRAE 90.1-2004 Mid-riseApartment Apartment LightsInst, ! Name
  {c1dc9fc1-400c-43ee-bf81-f8c0d57b6c0f}, ! Lights Definition Name
  {61494be9-25ef-40d9-82bd-b74a2efaeb76}, ! Space or SpaceType Name
  ,                                       ! Schedule Name
  ,                                       ! Fraction Replaceable
  ,                                       ! Multiplier
  Lights;                                 ! End-Use Subcategory

OS:Lights:Definition,
  {c1dc9fc1-400c-43ee-bf81-f8c0d57b6c0f}, ! Handle
  ASHRAE 90.1-2004 Mid-riseApartment Apartment LightsDef, ! Name
  Watts/Area,                             ! Design Level Calculation Method
  0,                                      ! Lighting Level
  3.8750077500155,                        ! Watts per Space Floor Area
  ;                                       ! Watts per Person

OS:Material,
  {d656bb33-c65d-4ed3-876b-ea436d48e2f4}, ! Handle
  000 F08 Metal surface,                  ! Name
  Smooth,                                 ! Roughness
  0.00080000000000000004,                 ! Thickness
  45.280000000000001,                     ! Conductivity
  7824,                                   ! Density
  500;                                    ! Specific Heat

OS:Material,
  {e09b8308-cfbf-42ed-8164-900ec0911ef3}, ! Handle
  000 F16 Acoustic tile,                  ! Name
  MediumSmooth,                           ! Roughness
  0.019099999999999999,                   ! Thickness
  0.059999999999999998,                   ! Conductivity
  368,                                    ! Density
  590;                                    ! Specific Heat

OS:Material,
  {b9780731-b0c4-4ebe-a967-4b849e2ee99c}, ! Handle
  000 G01a 19mm gypsum board,             ! Name
  MediumSmooth,                           ! Roughness
  0.019,                                  ! Thickness
  0.16,                                   ! Conductivity
  800,                                    ! Density
  1090;                                   ! Specific Heat

OS:Material,
  {eb8c255e-5fed-4488-90a4-d75e66ae9ac6}, ! Handle
  000 G05 25mm wood,                      ! Name
  MediumSmooth,                           ! Roughness
  0.025399999999999999,                   ! Thickness
  0.14999999999999999,                    ! Conductivity
  608,                                    ! Density
  1630;                                   ! Specific Heat

OS:Material,
  {d484a6d2-f81c-4811-8152-397327621470}, ! Handle
  000 I01 25mm insulation board,          ! Name
  MediumRough,                            ! Roughness
  0.025399999999999999,                   ! Thickness
  0.029999999999999999,                   ! Conductivity
  43,                                     ! Density
  1210;                                   ! Specific Heat

OS:Material,
  {4868b20f-c8cf-4fbb-9f17-5a915fb20760}, ! Handle
  000 M11 100mm lightweight concrete,     ! Name
  MediumRough,                            ! Roughness
  0.1016,                                 ! Thickness
  0.53000000000000003,                    ! Conductivity
  1280,                                   ! Density
  840;                                    ! Specific Heat

OS:Material,
  {a5bdab58-5720-44e2-ae63-0e09648e8e8c}, ! Handle
  1/2IN Gypsum,                           ! Name
  Smooth,                                 ! Roughness
  0.012699999999999999,                   ! Thickness
  0.16,                                   ! Conductivity
  784.89999999999998,                     ! Density
  830,                                    ! Specific Heat
  0.90000000000000002,                    ! Thermal Absorptance
  0.92000000000000004,                    ! Solar Absorptance
  0.92000000000000004;                    ! Visible Absorptance

OS:Material,
  {a297df92-ce7a-4d8d-9eef-36783117813b}, ! Handle
  AtticFloor Res Insulation-2.37,         ! Name
  MediumRough,                            ! Roughness
  0.096537354632839606,                   ! Thickness
  0.049000000000000002,                   ! Conductivity
  265,                                    ! Density
  836.79999999999995,                     ! Specific Heat
  0.90000000000000002,                    ! Thermal Absorptance
  0.69999999999999996,                    ! Solar Absorptance
  0.69999999999999996;                    ! Visible Absorptance

OS:Material,
  {68fb6637-2c8a-48d5-98b7-ddf9ade69e9d}, ! Handle
  IEAD NonRes Roof Insulation-2.85,       ! Name
  MediumRough,                            ! Roughness
  0.127338688569477,                      ! Thickness
  0.049000000000000002,                   ! Conductivity
  265,                                    ! Density
  836.79999999999995,                     ! Specific Heat
  0.90000000000000002,                    ! Thermal Absorptance
  0.69999999999999996,                    ! Solar Absorptance
  0.69999999999999996;                    ! Visible Absorptance

OS:Material,
  {340682d3-fa23-42a3-84c2-f1b90ba10569}, ! Handle
  MAT-CC05 4 HW CONCRETE,                 ! Name
  Rough,                                  ! Roughness
  0.1016,                                 ! Thickness
  1.3109999999999999,                     ! Conductivity
  2240,                                   ! Density
  836.79999999999995,                     ! Specific Heat
  0.90000000000000002,                    ! Thermal Absorptance
  0.69999999999999996,                    ! Solar Absorptance
  0.69999999999999996;                    ! Visible Absorptance

OS:Material,
  {e7193b1b-28da-4cc7-b7d1-0cb0e674319f}, ! Handle
  Metal Decking,                          ! Name
  MediumSmooth,                           ! Roughness
  0.0015,                                 ! Thickness
  45.006,                                 ! Conductivity
  7680,                                   ! Density
  418.39999999999998,                     ! Specific Heat
  0.90000000000000002,                    ! Thermal Absorptance
  0.69999999999999996,                    ! Solar Absorptance
  0.29999999999999999;                    ! Visible Absorptance

OS:Material,
  {b76ca5ed-32de-4aae-8f80-f521ca8dfb35}, ! Handle
  Roof Membrane,                          ! Name
  VeryRough,                              ! Roughness
  0.0094999999999999998,                  ! Thickness
  0.16,                                   ! Conductivity
  1121.29,                                ! Density
  1460,                                   ! Specific Heat
  0.90000000000000002,                    ! Thermal Absorptance
  0.69999999999999996,                    ! Solar Absorptance
  0.69999999999999996;                    ! Visible Absorptance

OS:Material,
  {f2965ebe-dc7c-41a7-a1cf-05a0a6a4ac50}, ! Handle
  Steel Frame NonRes Wall Insulation-2.75, ! Name
  MediumRough,                            ! Roughness
  0.11916136309600101,                    ! Thickness
  0.049000000000000002,                   ! Conductivity
  265,                                    ! Density
  836.79999999999995,                     ! Specific Heat
  0.90000000000000002,                    ! Thermal Absorptance
  0.69999999999999996,                    ! Solar Absorptance
  0.69999999999999996;                    ! Visible Absorptance

OS:Material,
  {181e8f70-ef0d-4ce2-80c2-2dfcd154e3e1}, ! Handle
  Wood Siding,                            ! Name
  MediumSmooth,                           ! Roughness
  0.01,                                   ! Thickness
  0.11,                                   ! Conductivity
  544.62,                                 ! Density
  1210,                                   ! Specific Heat
  0.90000000000000002,                    ! Thermal Absorptance
  0.78000000000000003,                    ! Solar Absorptance
  0.78000000000000003;                    ! Visible Absorptance

OS:Material:AirGap,
  {25ace1c7-e946-4fd0-bf24-54a1c7d004d6}, ! Handle
  000 F04 Wall air space resistance,      ! Name
  0.14999999999999999;                    ! Thermal Resistance

OS:Material:AirGap,
  {a0e88762-b66d-4033-bab8-a0a894b35c81}, ! Handle
  000 F05 Ceiling air space resistance,   ! Name
  0.17999999999999999;                    ! Thermal Resistance

OS:Material:AirWall,
  {3317393d-5ff4-4460-9fa6-130d49ffb32b}, ! Handle
  OS:Material:AirWall 1;                  ! Name

OS:Material:NoMass,
  {4b387cb3-3b9d-420b-93c3-f73961003e38}, ! Handle
  CP02 CARPET PAD,                        ! Name
  VeryRough,                              ! Roughness
  0.2165,                                 ! Thermal Resistance
  0.90000000000000002,                    ! Thermal Absorptance
  0.69999999999999996,                    ! Solar Absorptance
  0.80000000000000004;                    ! Visible Absorptance

OS:Material:NoMass,
  {b2c51e89-944a-47e1-a7f2-8bc9ec54823d}, ! Handle
  MAT-SHEATH,                             ! Name
  Rough,                                  ! Roughness
  0.36259999999999998,                    ! Thermal Resistance
  0.90000000000000002,                    ! Thermal Absorptance
  0.69999999999999996,                    ! Solar Absorptance
  0.69999999999999996;                    ! Visible Absorptance

OS:People,
  {5a255765-07fc-49e9-acd5-d4fad6bdfc18}, ! Handle
  ASHRAE 90.1-2004 Mid-riseApartment Apartment PeopInst, ! Name
  {56da2671-5ab2-4757-a262-cf5ec3083a42}, ! People Definition Name
  {61494be9-25ef-40d9-82bd-b74a2efaeb76}; ! Space or SpaceType Name

OS:People:Definition,
  {56da2671-5ab2-4757-a262-cf5ec3083a42}, ! Handle
  Mid-riseApartment Apartment PeopDef,    ! Name
  People/Area,                            ! Number of People Calculation Method
  0,                                      ! Number of People
  0.028309095159857,                      ! People per Space Floor Area
  ,                                       ! Space Floor Area per Person
  0.3;                                    ! Fraction Radiant

OS:Rendering:Color,
  {6224ba92-105c-4226-8382-363b0821e14c}, ! Handle
  000 AtticRoof ClimateZone 1-8 Color,    ! Name
  198.9,                                  ! Rendering Red Value
  0.0,                                    ! Rendering Green Value
  131.274;                                ! Rendering Blue Value

OS:Rendering:Color,
  {8346f012-6b5d-4b93-8393-7df99caede61}, ! Handle
  000 ExtSlabCarpet 4in ClimateZone 1-8 Color, ! Name
  198.9,                                  ! Rendering Red Value
  0.0,                                    ! Rendering Green Value
  0.0;                                    ! Rendering Blue Value

OS:Rendering:Color,
  {fa5b9fe7-7136-41c4-bcce-d93edcd375f1}, ! Handle
  000 ExtSlabCarpet 8in ClimateZone 1-8 Color, ! Name
  147.9,                                  ! Rendering Red Value
  0.0,                                    ! Rendering Green Value
  0.0;                                    ! Rendering Blue Value

OS:Rendering:Color,
  {205442ac-8b4e-418b-8a40-63423181b171}, ! Handle
  000 ExtSlab 4in ClimateZone 1-8 Color,  ! Name
  198.9,                                  ! Rendering Red Value
  0.0,                                    ! Rendering Green Value
  0.0;                                    ! Rendering Blue Value

OS:Rendering:Color,
  {b136c5d3-4b5f-4f99-add4-98427901a44c}, ! Handle
  000 ExtSlab 8in ClimateZone 1-8 Color,  ! Name
  147.9,                                  ! Rendering Red Value
  0.0,                                    ! Rendering Green Value
  0.0;                                    ! Rendering Blue Value

OS:Rendering:Color,
  {1d3d209a-5bbd-4ab5-8301-9cf44208f93c}, ! Handle
  000 Exterior Door Color,                ! Name
  124.3125,                               ! Rendering Red Value
  74.5875,                                ! Rendering Green Value
  89.505;                                 ! Rendering Blue Value

OS:Rendering:Color,
  {a9306f34-df9a-4db6-aefa-74f885202def}, ! Handle
  000 Exterior Floor Color,               ! Name
  255.0,                                  ! Rendering Red Value
  40.8,                                   ! Rendering Green Value
  40.7999999999998;                       ! Rendering Blue Value

OS:Rendering:Color,
  {044d1cba-0f44-429a-a109-1f399e70c462}, ! Handle
  000 Exterior Roof Color,                ! Name
  255.0,                                  ! Rendering Red Value
  0.0,                                    ! Rendering Green Value
  0.0;                                    ! Rendering Blue Value

OS:Rendering:Color,
  {c19d7ad0-5ba7-446c-9f49-8a0ab28ab44b}, ! Handle
  000 Exterior Wall Color,                ! Name
  142.8,                                  ! Rendering Red Value
  201.144,                                ! Rendering Green Value
  255.0;                                  ! Rendering Blue Value

OS:Rendering:Color,
  {3b97d8ed-022b-4615-89aa-0363397aae80}, ! Handle
  000 Exterior Window Color,              ! Name
  198.9,                                  ! Rendering Red Value
  0.0,                                    ! Rendering Green Value
  59.6699999999999;                       ! Rendering Blue Value

OS:Rendering:Color,
  {3782cc49-4b33-44cb-aa32-dac604bd2b98}, ! Handle
  000 Interior Ceiling Color,             ! Name
  219.096,                                ! Rendering Red Value
  142.8,                                  ! Rendering Green Value
  255.0;                                  ! Rendering Blue Value

OS:Rendering:Color,
  {bf57712a-7563-4c48-93a4-6b8f894d5c8e}, ! Handle
  000 Interior Door Color,                ! Name
  168.606,                                ! Rendering Red Value
  255.0,                                  ! Rendering Green Value
  142.8;                                  ! Rendering Blue Value

OS:Rendering:Color,
  {bda01685-f920-4284-9e4b-f859eb0c1cfc}, ! Handle
  000 Interior Floor Color,               ! Name
  255.0,                                  ! Rendering Red Value
  142.8,                                  ! Rendering Green Value
  142.8;                                  ! Rendering Blue Value

OS:Rendering:Color,
  {db356a5e-b978-47b0-94df-3a21cebda84f}, ! Handle
  000 Interior Partition Color,           ! Name
  165.24,                                 ! Rendering Red Value
  142.8,                                  ! Rendering Green Value
  255.0;                                  ! Rendering Blue Value

OS:Rendering:Color,
  {6aa0f551-d028-4958-a014-8381554a4daa}, ! Handle
  000 Interior Wall Color,                ! Name
  142.8,                                  ! Rendering Red Value
  201.144,                                ! Rendering Green Value
  255.0;                                  ! Rendering Blue Value

OS:Rendering:Color,
  {6ae3d9a7-3ce1-40df-9392-aa2e449a5d47}, ! Handle
  000 Interior Window Color,              ! Name
  235.926,                                ! Rendering Red Value
  255.0,                                  ! Rendering Green Value
  142.8;                                  ! Rendering Blue Value

OS:Rendering:Color,
  {7530033e-249b-428e-9b66-89bcd23269a5}, ! Handle
  ASHRAE 189.1-2009 AtticFloor ClimateZone 1-8 Color, ! Name
  183.9825,                               ! Rendering Red Value
  14.9175,                                ! Rendering Green Value
  126.5004;                               ! Rendering Blue Value

OS:Rendering:Color,
  {2d7d3d9a-d56f-44a9-bf5a-9ffb2148b8b5}, ! Handle
  ASHRAE 189.1-2009 ClimateZone 1-3 Mid-riseApartment Apartment Color, ! Name
  75.48,                                  ! Rendering Red Value
  207.264,                                ! Rendering Green Value
  230.52;                                 ! Rendering Blue Value

OS:Rendering:Color,
  {706fe30e-a36d-45b8-8efd-d9ef0abbcaec}, ! Handle
  ASHRAE 189.1-2009 ClimateZone 1-3 Mid-riseApartment Corridor Color, ! Name
  179.52,                                 ! Rendering Red Value
  24.48,                                  ! Rendering Green Value
  24.4799999999999;                       ! Rendering Blue Value

OS:Rendering:Color,
  {ce4bd096-d40a-4985-90d8-c66b802d40e1}, ! Handle
  ASHRAE 189.1-2009 ClimateZone 1-3 Mid-riseApartment Office Color, ! Name
  120.36,                                 ! Rendering Red Value
  236.64,                                 ! Rendering Green Value
  201.756;                                ! Rendering Blue Value

OS:Rendering:Color,
  {33b46e45-3af1-4b6b-b028-9bef7f3ef2f4}, ! Handle
  ASHRAE 189.1-2009 ClimateZone 4-8 Mid-riseApartment Apartment Color, ! Name
  75.48,                                  ! Rendering Red Value
  207.264,                                ! Rendering Green Value
  230.52;                                 ! Rendering Blue Value

OS:Rendering:Color,
  {0df52362-f033-4e24-8416-f172d3b24e9b}, ! Handle
  ASHRAE 189.1-2009 ClimateZone 4-8 Mid-riseApartment Corridor Color, ! Name
  179.52,                                 ! Rendering Red Value
  24.48,                                  ! Rendering Green Value
  24.4799999999999;                       ! Rendering Blue Value

OS:Rendering:Color,
  {aba76e91-7d0c-4041-b7a6-a6baf60c4891}, ! Handle
  ASHRAE 189.1-2009 ClimateZone 4-8 Mid-riseApartment Office Color, ! Name
  120.36,                                 ! Rendering Red Value
  236.64,                                 ! Rendering Green Value
  201.756;                                ! Rendering Blue Value

OS:Rendering:Color,
  {8f9113e8-cf3f-47d5-b80f-5631eb87f2ab}, ! Handle
  ASHRAE 189.1-2009 ExtRoof IEAD ClimateZone 1 Color, ! Name
  129.8817,                               ! Rendering Red Value
  14.9175,                                ! Rendering Green Value
  183.9825;                               ! Rendering Blue Value
